54
	Energy:      79.9281420
C         11.09708        8.65396        5.86066
C         10.62726        8.22657        7.25799
C          9.88034        6.88827        7.14530
C         10.79908        5.85550        6.44475
C         11.94060        7.52399        5.23181
H         11.53964        8.06293        7.88729
H         10.17584        8.79822        5.24239
H         11.69747        5.66143        7.07567
H         12.15155        7.82552        4.19128
H          8.98796        7.04601        6.48848
O         11.19504        6.31687        5.15832
O         11.86851        9.83864        5.97517
O          9.75482        9.21820        7.77759
O          9.55100        6.42557        8.44642
C         10.09256        4.50328        6.27573
H         10.81292        3.80447        5.79121
H          9.82125        4.11537        7.28451
O          8.94323        4.66232        5.47059
C          8.29185        3.42113        5.33384
H          8.94037        2.67820        4.81864
H          7.93359        3.04173        6.31651
H          7.39597        3.56741        4.69620
C          8.15542        6.43577        8.64767
H          7.74135        7.46317        8.54602
H          7.64892        5.72109        7.96198
H          7.94882        6.10077        9.68454
C         10.18897        9.66050        9.04377
H         11.17769       10.16520        8.97119
H          9.46282       10.40915        9.42112
H         10.20862        8.82385        9.77675
C         11.63852       10.69371        4.87772
H         11.87081       10.19307        3.91228
H         10.59869       11.08791        4.89325
H         12.32224       11.56287        4.96352
O         13.10877        7.32562        5.95780
C         14.41233        7.49246        5.58904
O         14.74957        7.93115        4.49184
C         15.46839        7.12454        6.59683
Cl        17.12347        7.40145        5.98141
Cl        15.24351        8.10281        8.06791
Cl        15.30524        5.40235        7.01925
O          9.24262        8.25026        2.44598
H          9.01056        8.34017        1.48438
C          7.06471        7.27781        2.83257
H          6.75603        7.38378        1.77065
H          6.55147        6.39489        3.27016
H          6.74592        8.18343        3.39092
C          8.58293        7.11212        2.93981
H          8.83568        7.01059        4.01466
C          9.06783        5.85191        2.21705
H         10.16594        5.74503        2.34402
H          8.57449        4.95150        2.64013
H          8.83549        5.90947        1.13218
H         14.14686        8.19963        3.79029
